#------------------------------------------------------------------------------
# This is a fake CIF file to demonstrate.
# Triclinic （三斜晶系）
# a, b, c, α, β, γ
#------------------------------------------------------------------------------

_publ_section_acknowledgements
;
This crystallographic data was generated using symmetry information
obtained from the Bilbao Crystallographic Server (https://www.cryst.ehu.es/).
;

_symmetry_Int_Tables_number      2
_symmetry_space_group_name_H-M   'P -1'
_cell_length_a                   1.00
_cell_length_b                   1.20
_cell_length_c                   1.40
_cell_angle_alpha                70.00
_cell_angle_beta                 80.00
_cell_angle_gamma                90.00

loop_
_symmetry_equiv_pos_as_xyz
'x, y, z'
'-x, -y, -z'

loop_
_atom_site_label
_atom_site_fract_x
_atom_site_fract_y
_atom_site_fract_z
H 0 0 0
