#------------------------------------------------------------------------------
# This is a fake CIF file to demonstrate.
# Hexagonal （六方晶系）
# a, a, c, 90, 90, 120
#------------------------------------------------------------------------------

_publ_section_acknowledgements
;
This crystallographic data was generated using symmetry information
obtained from the Bilbao Crystallographic Server (https://www.cryst.ehu.es/).
;

_symmetry_Int_Tables_number      191
_symmetry_space_group_name_H-M   'P 6/m m m'
_cell_length_a                   1.00
_cell_length_b                   1.00
_cell_length_c                   2.00
_cell_angle_alpha                90.00
_cell_angle_beta                 90.00
_cell_angle_gamma                120.00

loop_
_symmetry_equiv_pos_as_xyz
'x, y, z'
'-y, x-y, z'
'-x+y, -x, z'
'-x, -y, z'
'y, -x+y, z'
'x-y, x, z'
'y, x, -z'
'x-y, -y, -z'
'-x, -x+y, -z'
'-y, -x, -z'
'-x+y, y, -z'
'x, x-y, -z'
'-x, -y, -z'
'y, -x+y, -z'
'x-y, x, -z'
'x, y, -z'
'-y, x-y, -z'
'-x+y, -x, -z'
'-y, -x, z'
'-x+y, y, z'
'x, x-y, z'
'y, x, z'
'x-y, -y, z'
'-x, -x+y, z'

loop_
_atom_site_label
_atom_site_fract_x
_atom_site_fract_y
_atom_site_fract_z
H 0 0 0
