#------------------------------------------------------------------------------
# This is a fake CIF file to demonstrate.
# Rhombohedral （菱面体晶系）
# a, a, a, α, α, α
#------------------------------------------------------------------------------

_publ_section_acknowledgements
;
This crystallographic data was generated using symmetry information
obtained from the Bilbao Crystallographic Server (https://www.cryst.ehu.es/).
;

_symmetry_Int_Tables_number      166
_symmetry_space_group_name_H-M   'R -3 m :R'
_cell_length_a                   1.00
_cell_length_b                   1.00
_cell_length_c                   1.00
_cell_angle_alpha                57.00
_cell_angle_beta                 57.00
_cell_angle_gamma                57.00

loop_
_symmetry_equiv_pos_as_xyz
'x, y, z'
'z, x, y'
'y, z, x' 
'-y, -x, -z'
'-z, -y, -x'
'-x, -z, -y'
'-x, -y, -z'
'-z, -x, -y'
'-y, -z, -x'
'y, x, z' 
'z, y, x' 
'x, z, y'

loop_
_atom_site_label
_atom_site_fract_x
_atom_site_fract_y
_atom_site_fract_z
H 0 0 0
